
 OpenBabel07242302513D

 51 55  0  0  0  0  0  0  0  0999 V2000
    2.1246    0.1022    0.3983 N   0  0  0  0  0  0  0  0  0  0  0  0
    0.7810   -0.1287    0.7799 C   0  0  0  0  0  0  0  0  0  0  0  0
    0.0816    0.8612    1.5258 C   0  0  0  0  0  0  0  0  0  0  0  0
    0.6750    2.2329    1.7947 C   0  0  0  0  0  0  0  0  0  0  0  0
    1.8656    2.6748    1.3049 N   0  0  0  0  0  2  0  0  0  0  0  0
    2.0527    3.9446    1.7639 N   0  0  0  0  0  0  0  0  0  0  0  0
    0.9720    4.2331    2.5090 C   0  0  0  0  0  0  0  0  0  0  0  0
    0.1072    3.2102    2.5333 N   0  0  0  0  0  0  0  0  0  0  0  0
   -1.2155    0.6140    2.0010 C   0  0  0  0  0  0  0  0  0  0  0  0
   -1.8346   -0.6076    1.7590 C   0  0  0  0  0  0  0  0  0  0  0  0
   -1.1564   -1.5961    1.0465 C   0  0  0  0  0  0  0  0  0  0  0  0
    0.1535   -1.3852    0.5654 C   0  0  0  0  0  0  0  0  0  0  0  0
    0.7626   -2.5429   -0.1931 C   0  0  0  0  0  0  0  0  0  0  0  0
   -0.0021   -3.2550   -0.8455 O   0  0  0  0  0  0  0  0  0  0  0  0
    2.1926   -2.8127   -0.1536 C   0  0  0  0  0  0  0  0  0  0  0  0
    2.9886   -3.4827   -1.0751 C   0  0  0  0  0  0  0  0  0  0  0  0
    4.3579   -3.2797   -0.7196 C   0  0  0  0  0  0  0  0  0  0  0  0
    5.6074   -3.5406   -1.3312 C   0  0  0  0  0  0  0  0  0  0  0  0
    6.7987   -3.0568   -0.7398 C   0  0  0  0  0  0  0  0  0  0  0  0
    8.1294   -3.1339   -1.4614 C   0  0  0  0  0  0  0  0  0  0  0  0
    9.0733   -4.2049   -1.1404 N   0  0  0  0  0  0  0  0  0  0  0  0
    8.6821   -5.5554   -1.5488 C   0  0  0  0  0  0  0  0  0  0  0  0
    7.9110   -6.3468   -0.4827 C   0  0  0  0  0  0  0  0  0  0  0  0
    8.6239   -6.3787    0.7610 O   0  0  0  0  0  0  0  0  0  0  0  0
    8.8614   -5.0482    1.2393 C   0  0  0  0  0  0  0  0  0  0  0  0
    9.6407   -4.2098    0.2124 C   0  0  0  0  0  0  0  0  0  0  0  0
    6.7239   -2.3606    0.4749 C   0  0  0  0  0  0  0  0  0  0  0  0
    5.5079   -2.1368    1.1199 C   0  0  0  0  0  0  0  0  0  0  0  0
    4.3513   -2.5897    0.4867 C   0  0  0  0  0  0  0  0  0  0  0  0
    3.0409   -2.4084    0.8516 N   0  0  0  0  0  0  0  0  0  0  0  0
    2.3767    1.1019    0.5499 H   0  0  0  0  0  0  0  0  0  0  0  0
    2.3410   -0.1589   -0.5580 H   0  0  0  0  0  0  0  0  0  0  0  0
    0.8297    5.1732    3.0224 H   0  0  0  0  0  0  0  0  0  0  0  0
   -1.7459    1.3917    2.5490 H   0  0  0  0  0  0  0  0  0  0  0  0
   -2.8435   -0.7817    2.1225 H   0  0  0  0  0  0  0  0  0  0  0  0
   -1.6557   -2.5472    0.8697 H   0  0  0  0  0  0  0  0  0  0  0  0
    2.6196   -3.9493   -1.9797 H   0  0  0  0  0  0  0  0  0  0  0  0
    5.6357   -4.0423   -2.2944 H   0  0  0  0  0  0  0  0  0  0  0  0
    8.6448   -2.1749   -1.3091 H   0  0  0  0  0  0  0  0  0  0  0  0
    7.9397   -3.1464   -2.5435 H   0  0  0  0  0  0  0  0  0  0  0  0
    9.6153   -6.0984   -1.7482 H   0  0  0  0  0  0  0  0  0  0  0  0
    8.1359   -5.5453   -2.4996 H   0  0  0  0  0  0  0  0  0  0  0  0
    7.8041   -7.3839   -0.8166 H   0  0  0  0  0  0  0  0  0  0  0  0
    6.9050   -5.9494   -0.3202 H   0  0  0  0  0  0  0  0  0  0  0  0
    9.4559   -5.1375    2.1550 H   0  0  0  0  0  0  0  0  0  0  0  0
    7.9096   -4.5890    1.5179 H   0  0  0  0  0  0  0  0  0  0  0  0
   10.6392   -4.6605    0.1234 H   0  0  0  0  0  0  0  0  0  0  0  0
    9.8124   -3.1937    0.5852 H   0  0  0  0  0  0  0  0  0  0  0  0
    7.6233   -1.9406    0.9201 H   0  0  0  0  0  0  0  0  0  0  0  0
    5.4573   -1.5652    2.0422 H   0  0  0  0  0  0  0  0  0  0  0  0
    2.7547   -1.8209    1.6268 H   0  0  0  0  0  0  0  0  0  0  0  0
  1  2  1  0  0  0  0
  1 31  1  0  0  0  0
  1 32  1  0  0  0  0
  2  3  1  0  0  0  0
  2 12  2  0  0  0  0
  3  4  1  0  0  0  0
  3  9  2  0  0  0  0
  4  5  1  0  0  0  0
  4  8  2  0  0  0  0
  5  6  1  0  0  0  0
  6  7  2  0  0  0  0
  7  8  1  0  0  0  0
  7 33  1  0  0  0  0
  9 10  1  0  0  0  0
  9 34  1  0  0  0  0
 10 11  2  0  0  0  0
 10 35  1  0  0  0  0
 11 12  1  0  0  0  0
 11 36  1  0  0  0  0
 12 13  1  0  0  0  0
 13 14  2  0  0  0  0
 13 15  1  0  0  0  0
 15 16  2  0  0  0  0
 15 30  1  0  0  0  0
 16 17  1  0  0  0  0
 16 37  1  0  0  0  0
 17 18  1  0  0  0  0
 17 29  2  0  0  0  0
 18 19  2  0  0  0  0
 18 38  1  0  0  0  0
 19 20  1  0  0  0  0
 19 27  1  0  0  0  0
 20 21  1  0  0  0  0
 20 39  1  0  0  0  0
 20 40  1  0  0  0  0
 21 22  1  0  0  0  0
 21 26  1  0  0  0  0
 22 23  1  0  0  0  0
 22 41  1  0  0  0  0
 22 42  1  0  0  0  0
 23 24  1  0  0  0  0
 23 43  1  0  0  0  0
 23 44  1  0  0  0  0
 24 25  1  0  0  0  0
 25 26  1  0  0  0  0
 25 45  1  0  0  0  0
 25 46  1  0  0  0  0
 26 47  1  0  0  0  0
 26 48  1  0  0  0  0
 27 28  2  0  0  0  0
 27 49  1  0  0  0  0
 28 29  1  0  0  0  0
 28 50  1  0  0  0  0
 29 30  1  0  0  0  0
 30 51  1  0  0  0  0
M  END
$$$$
